sim-outorder: SimpleScalar/PISA Tool Set version 3.0 of August, 2003.
Copyright (c) 1994-2003 by Todd M. Austin, Ph.D. and SimpleScalar, LLC.
All Rights Reserved. This version of SimpleScalar is licensed for academic
non-commercial use.  No portion of this work may be used by any commercial
entity, or for any commercial purpose, without the prior written permission
of SimpleScalar, LLC (info@simplescalar.com).


Processor Parameters:
Issue Width: 4
Window Size: 16
Number of Virtual Registers: 32
Number of Physical Registers: 16
Datapath Width: 64
Total Power Consumption: 67.6186
Branch Predictor Power Consumption: 4.52313  (6.89%)
 branch target buffer power (W): 4.16837
 local predict power (W): 0.0879711
 global predict power (W): 0.0996078
 chooser power (W): 0.0702439
 RAS power (W): 0.0969383
Rename Logic Power Consumption: 0.417965  (0.637%)
 Instruction Decode Power (W): 0.0159915
 RAT decode_power (W): 0.113514
 RAT wordline_power (W): 0.0307815
 RAT bitline_power (W): 0.246771
 DCL Comparators (W): 0.0109075
Instruction Window Power Consumption: 2.20432  (3.36%)
 tagdrive (W): 0.0943488
 tagmatch (W): 0.033695
 Selection Logic (W): 0.0134217
 decode_power (W): 0.0532503
 wordline_power (W): 0.0844643
 bitline_power (W): 1.92514
Load/Store Queue Power Consumption: 0.96318  (1.47%)
 tagdrive (W): 0.457232
 tagmatch (W): 0.100774
 decode_power (W): 0.00799577
 wordline_power (W): 0.0150119
 bitline_power (W): 0.382166
Arch. Register File Power Consumption: 3.57247  (5.44%)
 decode_power (W): 0.113514
 wordline_power (W): 0.0844643
 bitline_power (W): 3.37449
Result Bus Power Consumption: 2.29754  (3.5%)
Total Clock Power: 25.2956  (38.5%)
Int ALU Power: 4.66013  (7.1%)
FP ALU Power: 14.281  (21.8%)
Instruction Cache Power Consumption: 1.5054  (2.29%)
 decode_power (W): 0.325528
 wordline_power (W): 0.057312
 bitline_power (W): 0.678088
 senseamp_power (W): 0.192
 tagarray_power (W): 0.252468
Itlb_power (W): 0.263823 (0.402%)
Data Cache Power Consumption: 3.01079  (4.59%)
 decode_power (W): 0.651055
 wordline_power (W): 0.114624
 bitline_power (W): 1.35618
 senseamp_power (W): 0.384
 tagarray_power (W): 0.504936
Dtlb_power (W): 0.900515 (1.37%)
Level 2 Cache Power Consumption: 1.72266 (2.63%)
 decode_power (W): 0.19487
 wordline_power (W): 0.0225599
 bitline_power (W): 0.886372
 senseamp_power (W): 0.096
 tagarray_power (W): 0.522856
fatal: cannot open executable `/home/dbp/lpd_env/fftPower_lpd/fft_code/impl2/simplescalar_obj/fft_test'
